@<TRIPOS>MOLECULE
TMP 
   18    18     1     0     0
SMALL
bcc


@<TRIPOS>ATOM
      1 C1         41.2490   44.5850   18.4770 ca        1 TMP      -0.0819
      2 C2         41.7650   45.4480   19.4520 ca        1 TMP      -0.1267
      3 C3         41.8040   44.5680   17.1930 ca        1 TMP      -0.1278
      4 C4         40.0930   43.6730   18.8120 c3        1 TMP      -0.0527
      5 C5         42.8370   46.2930   19.1410 ca        1 TMP      -0.1267
      6 C6         42.8760   45.4140   16.8820 ca        1 TMP      -0.1278
      7 C7         43.3920   46.2760   17.8570 ca        1 TMP      -0.0819
      8 C8         44.5480   47.1880   17.5220 c3        1 TMP      -0.0527
      9 H1         41.3440   45.4610   20.4260 ha        1 TMP       0.1298
     10 H2         41.4130   43.9140   16.4530 ha        1 TMP       0.1297
     11 H3         40.3170   42.6530   18.4650 hc        1 TMP       0.0435
     12 H4         39.9380   43.6640   19.9020 hc        1 TMP       0.0410
     13 H5         39.1820   44.0380   18.3140 hc        1 TMP       0.0452
     14 H6         43.2290   46.9470   19.8810 ha        1 TMP       0.1298
     15 H7         43.2970   45.4010   15.9080 ha        1 TMP       0.1297
     16 H8         45.3340   46.6120   17.0120 hc        1 TMP       0.0435
     17 H9         44.1990   47.9960   16.8610 hc        1 TMP       0.0452
     18 H10        44.9540   47.6210   18.4480 hc        1 TMP       0.0410
@<TRIPOS>BOND
     1    1    2 ar  
     2    1    3 ar  
     3    1    4 1   
     4    2    5 ar  
     5    2    9 1   
     6    3    6 ar  
     7    3   10 1   
     8    4   11 1   
     9    4   12 1   
    10    4   13 1   
    11    5    7 ar  
    12    5   14 1   
    13    6    7 ar  
    14    6   15 1   
    15    7    8 1   
    16    8   16 1   
    17    8   17 1   
    18    8   18 1   
@<TRIPOS>SUBSTRUCTURE
     1 TMP         1 TEMP              0 ****  ****    0 ROOT
